minlp-notes/research-20261001/scip-set-selection/logs/root/powerflow0014r.corner.s0.log
SCIP version 10.0.3 [precision: 8 byte] [memory: block] [mode: optimized] [LP solver: SoPlex 8.0.3] [GitHash: d409edf9f6]
Copyright (c) 2002-2026 Zuse Institute Berlin (ZIB)

External libraries: 
  Readline 8.3         GNU library for command line editing (gnu.org/s/readline)
  SoPlex 8.0.3         Linear programming solver developed at Zuse Institute Berlin (soplex.zib.de) [GitHash: 13e2ab24]
  CppAD 20180000.0     Algorithmic Differentiation of C++ algorithms developed by B. Bell (github.com/coin-or/CppAD)
  ZLIB 1.3.2           General purpose compression library by J. Gailly and M. Adler (zlib.net)
  LAPACK 3.12.0        General Linear Algebra PACKage (http://www.netlib.org/lapack/)
  MPFR 4.2.2           GNU Multiple Precision Floating-Point Reliable Library (mpfr.org)
  Boost 1.85.0         Boost C++ Libraries (boost.org)
  TinyCThread 1.2      small portable implementation of the C11 threads API (tinycthread.github.io)
  GMP 6.3.0            GNU Multiple Precision Arithmetic Library developed by T. Granlund (gmplib.org)
  AMPL/MP 4.0.4        AMPL .nl file reader library (github.com/ampl/mp)
  Nauty 2.8.8          Computing Graph Automorphism Groups by Brendan D. McKay (users.cecs.anu.edu.au/~bdm/nauty)
  sassy 2.1            Symmetry preprocessor by Markus Anders (github.com/markusa4/sassy)

user parameter file <scip.set> not found - using default parameters

table/nlhdlr_quadratic/active = TRUE
limits/memory = 6000
limits/time = 120
timing/clocktype = 1
nlhdlr/quadratic/useintersectioncuts = TRUE
nlhdlr/quadratic/setrule = 1
limits/nodes = 1

read problem </workspace/local-home/.cache/minlplib/minlplib/osil/powerflow0014r.osil>
============

original problem has 119 variables (0 bin, 0 int, 119 cont) and 198 constraints

presolving:
(round 1, fast)       15 del vars, 69 del conss, 0 add conss, 366 chg bounds, 0 chg sides, 0 chg coeffs, 0 upgd conss, 0 impls, 0 clqs, 0 implints
(round 2, fast)       15 del vars, 71 del conss, 0 add conss, 394 chg bounds, 0 chg sides, 0 chg coeffs, 0 upgd conss, 0 impls, 0 clqs, 0 implints
   (0.0s) symmetry computation started: requiring (bin +, int +, cont +), (fixed: bin -, int -, cont -)
   (0.0s) no symmetry present (symcode time: 0.00)
presolving (3 rounds: 3 fast, 1 medium, 1 exhaustive):
 15 deleted vars, 71 deleted constraints, 0 added constraints, 394 tightened bounds, 0 added holes, 0 changed sides, 0 changed coefficients
 0 implications, 0 cliques, 0 implied integral variables (0 bin, 0 int, 0 cont)
presolved problem has 104 variables (0 bin, 0 int, 104 cont) and 113 constraints
     18 constraints of type <linear>
     95 constraints of type <nonlinear>
Presolving Time: 0.02

 time | node  | left  |LP iter|LP it/n|mem/heur|mdpt |vars |cons |rows |cuts |sepa|confs|strbr|  dualbound   | primalbound  |  gap   | compl. 
  0.0s|     1 |     0 |   226 |     - |  4317k |   0 | 306 | 113 | 333 |   0 |  0 |   0 |   0 |-1.000000e-09 |      --      |    Inf | unknown
  0.1s|     1 |     0 |   278 |     - |  5728k |   0 | 306 | 113 | 352 |  19 |  1 |   0 |   0 |-1.000000e-09 |      --      |    Inf | unknown
  0.1s|     1 |     0 |   324 |     - |  6219k |   0 | 306 | 113 | 371 |  38 |  2 |   0 |   0 |-1.000000e-09 |      --      |    Inf | unknown
  0.2s|     1 |     0 |   406 |     - |  7040k |   0 | 306 | 113 | 389 |  56 |  3 |   0 |   0 |-1.000000e-09 |      --      |    Inf | unknown
  0.3s|     1 |     0 |   496 |     - |  7363k |   0 | 306 | 113 | 404 |  71 |  4 |   0 |   0 |-1.000000e-09 |      --      |    Inf | unknown
  0.3s|     1 |     0 |   573 |     - |  8473k |   0 | 306 | 113 | 421 |  88 |  5 |   0 |   0 |-1.000000e-09 |      --      |    Inf | unknown
  0.4s|     1 |     0 |   608 |     - |  8530k |   0 | 306 | 113 | 436 | 103 |  6 |   0 |   0 |-1.000000e-09 |      --      |    Inf | unknown
  0.5s|     1 |     0 |   678 |     - |  8577k |   0 | 306 | 113 | 453 | 120 |  7 |   0 |   0 |-1.000000e-09 |      --      |    Inf | unknown
  0.6s|     1 |     0 |   729 |     - |  8605k |   0 | 306 | 113 | 469 | 136 |  8 |   0 |   0 |-1.000000e-09 |      --      |    Inf | unknown
  0.6s|     1 |     0 |   767 |     - |    10M |   0 | 306 | 113 | 487 | 154 |  9 |   0 |   0 |-1.000000e-09 |      --      |    Inf | unknown
  0.7s|     1 |     0 |   809 |     - |    10M |   0 | 306 | 113 | 297 | 169 | 10 |   0 |   0 |-1.000000e-09 |      --      |    Inf | unknown
  0.8s|     1 |     0 |   864 |     - |    10M |   0 | 306 | 113 | 314 | 186 | 11 |   0 |   0 |-1.000000e-09 |      --      |    Inf | unknown
  1.3s|     1 |     0 | 10764 |     - |    10M |   0 | 306 | 113 | 314 | 186 | 11 |   0 |   0 |-1.000000e-09 |      --      |    Inf | unknown
  1.4s|     1 |     0 | 10833 |     - |    10M |   0 | 306 | 113 | 332 | 204 | 12 |   0 |   0 |-1.000000e-09 |      --      |    Inf | unknown
  1.4s|     1 |     0 | 10866 |     - |    12M |   0 | 306 | 113 | 348 | 220 | 13 |   0 |   0 |-1.000000e-09 |      --      |    Inf | unknown
 time | node  | left  |LP iter|LP it/n|mem/heur|mdpt |vars |cons |rows |cuts |sepa|confs|strbr|  dualbound   | primalbound  |  gap   | compl. 
  1.5s|     1 |     0 | 10893 |     - |    12M |   0 | 306 | 113 | 365 | 237 | 14 |   0 |   0 |-1.000000e-09 |      --      |    Inf | unknown
  1.6s|     1 |     0 | 10967 |     - |    13M |   0 | 306 | 113 | 382 | 254 | 15 |   0 |   0 |-1.000000e-09 |      --      |    Inf | unknown
  1.7s|     1 |     0 | 11013 |     - |    13M |   0 | 306 | 113 | 299 | 268 | 16 |   0 |   0 |-1.000000e-09 |      --      |    Inf | unknown
  1.7s|     1 |     0 | 11055 |     - |    14M |   0 | 306 | 113 | 314 | 283 | 17 |   0 |   0 |-1.000000e-09 |      --      |    Inf | unknown
  1.8s|     1 |     0 | 11098 |     - |    14M |   0 | 306 | 113 | 329 | 298 | 18 |   0 |   0 |-1.000000e-09 |      --      |    Inf | unknown
  1.9s|     1 |     0 | 11145 |     - |    14M |   0 | 306 | 113 | 348 | 317 | 19 |   0 |   0 |-1.000000e-09 |      --      |    Inf | unknown
  2.0s|     1 |     0 | 11191 |     - |    14M |   0 | 306 | 113 | 364 | 333 | 20 |   0 |   0 |-1.000000e-09 |      --      |    Inf | unknown
  2.0s|     1 |     0 | 11262 |     - |    14M |   0 | 306 | 113 | 381 | 350 | 21 |   0 |   0 |-1.000000e-09 |      --      |    Inf | unknown
  2.0s|     1 |     0 | 11555 |     - |    14M |   0 | 306 | 113 | 309 | 365 | 22 |   0 |   0 | 7.934972e+01 |      --      |    Inf | unknown
  2.0s|     1 |     0 | 11626 |     - |    14M |   0 | 306 | 113 | 327 | 383 | 23 |   0 |   0 | 4.277531e+02 |      --      |    Inf | unknown
  2.0s|     1 |     0 | 11743 |     - |    14M |   0 | 306 | 113 | 343 | 399 | 24 |   0 |   0 | 1.069990e+03 |      --      |    Inf | unknown
  2.0s|     1 |     0 | 11859 |     - |    14M |   0 | 306 | 113 | 358 | 414 | 25 |   0 |   0 | 1.954859e+03 |      --      |    Inf | unknown
  2.0s|     1 |     0 | 11906 |     - |    14M |   0 | 306 | 113 | 377 | 433 | 26 |   0 |   0 | 2.035677e+03 |      --      |    Inf | unknown
  2.0s|     1 |     0 | 12008 |     - |    14M |   0 | 306 | 113 | 396 | 452 | 27 |   0 |   0 | 2.571563e+03 |      --      |    Inf | unknown
  2.0s|     1 |     0 | 12098 |     - |    14M |   0 | 306 | 113 | 347 | 471 | 28 |   0 |   0 | 2.873034e+03 |      --      |    Inf | unknown
 time | node  | left  |LP iter|LP it/n|mem/heur|mdpt |vars |cons |rows |cuts |sepa|confs|strbr|  dualbound   | primalbound  |  gap   | compl. 
  2.0s|     1 |     0 | 12175 |     - |    14M |   0 | 306 | 113 | 366 | 490 | 29 |   0 |   0 | 3.319232e+03 |      --      |    Inf | unknown
  2.0s|     1 |     0 | 12344 |     - |    14M |   0 | 306 | 113 | 384 | 508 | 30 |   0 |   0 | 3.545966e+03 |      --      |    Inf | unknown
  2.0s|     1 |     0 | 12516 |     - |    14M |   0 | 306 | 113 | 401 | 525 | 31 |   0 |   0 | 3.738366e+03 |      --      |    Inf | unknown
  2.1s|     1 |     0 | 12654 |     - |    14M |   0 | 306 | 113 | 419 | 543 | 32 |   0 |   0 | 3.850524e+03 |      --      |    Inf | unknown
  2.1s|     1 |     0 | 12754 |     - |    14M |   0 | 306 | 113 | 437 | 561 | 33 |   0 |   0 | 4.000374e+03 |      --      |    Inf | unknown
  2.1s|     1 |     0 | 12843 |     - |    14M |   0 | 306 | 113 | 400 | 578 | 34 |   0 |   0 | 4.185312e+03 |      --      |    Inf | unknown
  2.1s|     1 |     0 | 12933 |     - |    14M |   0 | 306 | 113 | 419 | 597 | 35 |   0 |   0 | 4.483260e+03 |      --      |    Inf | unknown
  2.1s|     1 |     0 | 13058 |     - |    14M |   0 | 306 | 113 | 436 | 614 | 36 |   0 |   0 | 5.073173e+03 |      --      |    Inf | unknown
  2.1s|     1 |     0 | 13134 |     - |    14M |   0 | 306 | 113 | 454 | 632 | 37 |   0 |   0 | 5.205982e+03 |      --      |    Inf | unknown
  2.1s|     1 |     0 | 13204 |     - |    14M |   0 | 306 | 113 | 472 | 650 | 38 |   0 |   0 | 5.541835e+03 |      --      |    Inf | unknown
  2.1s|     1 |     0 | 13294 |     - |    14M |   0 | 306 | 113 | 493 | 671 | 39 |   0 |   0 | 5.718775e+03 |      --      |    Inf | unknown
  2.1s|     1 |     0 | 13375 |     - |    14M |   0 | 306 | 113 | 414 | 690 | 40 |   0 |   0 | 5.771047e+03 |      --      |    Inf | unknown
  2.1s|     1 |     0 | 13439 |     - |    14M |   0 | 306 | 113 | 435 | 711 | 41 |   0 |   0 | 5.799731e+03 |      --      |    Inf | unknown
  2.1s|     1 |     0 | 13563 |     - |    14M |   0 | 306 | 113 | 451 | 727 | 42 |   0 |   0 | 5.887173e+03 |      --      |    Inf | unknown
  2.1s|     1 |     0 | 13621 |     - |    14M |   0 | 306 | 113 | 470 | 746 | 43 |   0 |   0 | 5.926700e+03 |      --      |    Inf | unknown
 time | node  | left  |LP iter|LP it/n|mem/heur|mdpt |vars |cons |rows |cuts |sepa|confs|strbr|  dualbound   | primalbound  |  gap   | compl. 
  2.1s|     1 |     0 | 13710 |     - |    14M |   0 | 306 | 113 | 486 | 762 | 44 |   0 |   0 | 5.951046e+03 |      --      |    Inf | unknown
  2.1s|     1 |     0 | 13816 |     - |    14M |   0 | 306 | 113 | 501 | 777 | 45 |   0 |   0 | 6.235705e+03 |      --      |    Inf | unknown
  2.1s|     1 |     0 | 13950 |     - |    14M |   0 | 306 | 113 | 412 | 793 | 46 |   0 |   0 | 6.346754e+03 |      --      |    Inf | unknown
  2.1s|     1 |     0 | 14068 |     - |    14M |   0 | 306 | 113 | 432 | 813 | 47 |   0 |   0 | 6.362687e+03 |      --      |    Inf | unknown
  2.1s|     1 |     0 | 14214 |     - |    14M |   0 | 306 | 113 | 450 | 831 | 48 |   0 |   0 | 6.383113e+03 |      --      |    Inf | unknown
  2.1s|     1 |     0 | 14336 |     - |    14M |   0 | 306 | 113 | 469 | 850 | 49 |   0 |   0 | 6.396622e+03 |      --      |    Inf | unknown
  2.1s|     1 |     0 | 14371 |     - |    14M |   0 | 306 | 113 | 487 | 868 | 50 |   0 |   0 | 6.398273e+03 |      --      |    Inf | unknown
  2.1s|     1 |     0 | 14471 |     - |    14M |   0 | 306 | 113 | 504 | 885 | 51 |   0 |   0 | 6.408318e+03 |      --      |    Inf | unknown
  2.1s|     1 |     0 | 14524 |     - |    14M |   0 | 306 | 113 | 407 | 901 | 52 |   0 |   0 | 6.415695e+03 |      --      |    Inf | unknown
  2.1s|     1 |     0 | 14665 |     - |    14M |   0 | 306 | 113 | 420 | 914 | 53 |   0 |   0 | 6.899201e+03 |      --      |    Inf | unknown
  2.1s|     1 |     0 | 14815 |     - |    14M |   0 | 306 | 113 | 439 | 933 | 54 |   0 |   0 | 6.974248e+03 |      --      |    Inf | unknown
  2.1s|     1 |     0 | 15006 |     - |    14M |   0 | 306 | 113 | 456 | 950 | 55 |   0 |   0 | 7.035321e+03 |      --      |    Inf | unknown
  2.1s|     1 |     0 | 15033 |     - |    14M |   0 | 306 | 113 | 470 | 964 | 56 |   0 |   0 | 7.037377e+03 |      --      |    Inf | unknown
  2.1s|     1 |     0 | 15125 |     - |    14M |   0 | 306 | 113 | 485 | 979 | 57 |   0 |   0 | 7.061393e+03 |      --      |    Inf | unknown
  2.1s|     1 |     0 | 15150 |     - |    14M |   0 | 306 | 113 | 398 | 996 | 58 |   0 |   0 | 7.064331e+03 |      --      |    Inf | unknown
 time | node  | left  |LP iter|LP it/n|mem/heur|mdpt |vars |cons |rows |cuts |sepa|confs|strbr|  dualbound   | primalbound  |  gap   | compl. 
  2.1s|     1 |     0 | 15286 |     - |    14M |   0 | 306 | 113 | 412 |1010 | 59 |   0 |   0 | 7.097066e+03 |      --      |    Inf | unknown
  2.2s|     1 |     0 | 15322 |     - |    14M |   0 | 306 | 113 | 429 |1027 | 60 |   0 |   0 | 7.098963e+03 |      --      |    Inf | unknown
  2.2s|     1 |     0 | 15411 |     - |    14M |   0 | 306 | 113 | 446 |1044 | 61 |   0 |   0 | 7.109383e+03 |      --      |    Inf | unknown
  2.2s|     1 |     0 | 15512 |     - |    14M |   0 | 306 | 113 | 460 |1058 | 62 |   0 |   0 | 7.157131e+03 |      --      |    Inf | unknown
  2.2s|     1 |     0 | 15538 |     - |    14M |   0 | 306 | 113 | 476 |1074 | 63 |   0 |   0 | 7.158799e+03 |      --      |    Inf | unknown
  2.2s|     1 |     0 | 15611 |     - |    14M |   0 | 306 | 113 | 391 |1091 | 64 |   0 |   0 | 7.179986e+03 |      --      |    Inf | unknown
  2.2s|     1 |     0 | 15685 |     - |    14M |   0 | 306 | 113 | 405 |1105 | 65 |   0 |   0 | 7.184702e+03 |      --      |    Inf | unknown
  2.2s|     1 |     0 | 15847 |     - |    14M |   0 | 306 | 113 | 421 |1121 | 66 |   0 |   0 | 7.386550e+03 |      --      |    Inf | unknown
  2.2s|     1 |     0 | 15878 |     - |    14M |   0 | 306 | 113 | 438 |1138 | 67 |   0 |   0 | 7.388256e+03 |      --      |    Inf | unknown
  2.2s|     1 |     0 | 15944 |     - |    14M |   0 | 306 | 113 | 456 |1156 | 68 |   0 |   0 | 7.390431e+03 |      --      |    Inf | unknown
  2.2s|     1 |     0 | 16050 |     - |    14M |   0 | 306 | 113 | 471 |1171 | 69 |   0 |   0 | 7.411670e+03 |      --      |    Inf | unknown
  2.2s|     1 |     0 | 16133 |     - |    14M |   0 | 306 | 113 | 407 |1188 | 70 |   0 |   0 | 7.467888e+03 |      --      |    Inf | unknown
  2.2s|     1 |     0 | 16177 |     - |    14M |   0 | 306 | 113 | 421 |1202 | 71 |   0 |   0 | 7.470344e+03 |      --      |    Inf | unknown
  2.2s|     1 |     0 | 16192 |     - |    14M |   0 | 306 | 113 | 436 |1217 | 72 |   0 |   0 | 7.472615e+03 |      --      |    Inf | unknown
  2.2s|     1 |     0 | 16326 |     - |    14M |   0 | 306 | 113 | 449 |1230 | 73 |   0 |   0 | 7.514492e+03 |      --      |    Inf | unknown
 time | node  | left  |LP iter|LP it/n|mem/heur|mdpt |vars |cons |rows |cuts |sepa|confs|strbr|  dualbound   | primalbound  |  gap   | compl. 
  2.2s|     1 |     0 | 16407 |     - |    14M |   0 | 306 | 113 | 463 |1244 | 74 |   0 |   0 | 7.517335e+03 |      --      |    Inf | unknown
  2.2s|     1 |     0 | 16466 |     - |    14M |   0 | 306 | 113 | 475 |1256 | 75 |   0 |   0 | 7.535132e+03 |      --      |    Inf | unknown
  2.2s|     1 |     0 | 16539 |     - |    14M |   0 | 306 | 113 | 376 |1272 | 76 |   0 |   0 | 7.535661e+03 |      --      |    Inf | unknown
  2.2s|     1 |     0 | 16648 |     - |    14M |   0 | 306 | 113 | 389 |1285 | 77 |   0 |   0 | 7.580335e+03 |      --      |    Inf | unknown
  2.2s|     1 |     0 | 16714 |     - |    14M |   0 | 306 | 113 | 404 |1300 | 78 |   0 |   0 | 7.593840e+03 |      --      |    Inf | unknown
  2.2s|     1 |     0 | 16749 |     - |    14M |   0 | 306 | 113 | 418 |1314 | 79 |   0 |   0 | 7.594972e+03 |      --      |    Inf | unknown
  2.2s|     1 |     0 | 16782 |     - |    14M |   0 | 306 | 113 | 430 |1326 | 80 |   0 |   0 | 7.596715e+03 |      --      |    Inf | unknown
  2.2s|     1 |     0 | 16914 |     - |    14M |   0 | 306 | 113 | 443 |1339 | 81 |   0 |   0 | 7.624781e+03 |      --      |    Inf | unknown
  2.2s|     1 |     0 | 17098 |     - |    14M |   0 | 306 | 113 | 367 |1352 | 82 |   0 |   0 | 7.658855e+03 |      --      |    Inf | unknown
  2.2s|     1 |     0 | 17186 |     - |    14M |   0 | 306 | 113 | 378 |1363 | 83 |   0 |   0 | 7.686958e+03 |      --      |    Inf | unknown
  2.2s|     1 |     0 | 17218 |     - |    14M |   0 | 306 | 113 | 394 |1379 | 84 |   0 |   0 | 7.687455e+03 |      --      |    Inf | unknown
  2.3s|     1 |     0 | 17253 |     - |    14M |   0 | 306 | 113 | 407 |1392 | 85 |   0 |   0 | 7.688557e+03 |      --      |    Inf | unknown
  2.3s|     1 |     0 | 17300 |     - |    14M |   0 | 306 | 113 | 421 |1406 | 86 |   0 |   0 | 7.690401e+03 |      --      |    Inf | unknown
  2.3s|     1 |     0 | 17571 |     - |    14M |   0 | 306 | 113 | 433 |1418 | 87 |   0 |   0 | 7.723262e+03 |      --      |    Inf | unknown
  2.3s|     1 |     0 | 17611 |     - |    14M |   0 | 306 | 113 | 387 |1433 | 88 |   0 |   0 | 7.724233e+03 |      --      |    Inf | unknown
 time | node  | left  |LP iter|LP it/n|mem/heur|mdpt |vars |cons |rows |cuts |sepa|confs|strbr|  dualbound   | primalbound  |  gap   | compl. 
  2.3s|     1 |     0 | 17761 |     - |    14M |   0 | 306 | 113 | 399 |1445 | 89 |   0 |   0 | 7.729445e+03 |      --      |    Inf | unknown
  2.3s|     1 |     0 | 17927 |     - |    14M |   0 | 306 | 113 | 410 |1456 | 90 |   0 |   0 | 7.740406e+03 |      --      |    Inf | unknown
  2.3s|     1 |     0 | 18092 |     - |    14M |   0 | 306 | 113 | 422 |1468 | 91 |   0 |   0 | 7.749567e+03 |      --      |    Inf | unknown
  2.3s|     1 |     0 | 18137 |     - |    14M |   0 | 306 | 113 | 435 |1481 | 92 |   0 |   0 | 7.750684e+03 |      --      |    Inf | unknown
  2.3s|     1 |     0 | 18263 |     - |    14M |   0 | 306 | 113 | 449 |1495 | 93 |   0 |   0 | 7.755438e+03 |      --      |    Inf | unknown
  2.3s|     1 |     0 | 18607 |     - |    14M |   0 | 306 | 113 | 382 |1506 | 94 |   0 |   0 | 7.820535e+03 |      --      |    Inf | unknown
  2.3s|     1 |     0 | 18631 |     - |    14M |   0 | 306 | 113 | 398 |1522 | 95 |   0 |   0 | 7.820832e+03 |      --      |    Inf | unknown
  2.3s|     1 |     0 | 18654 |     - |    14M |   0 | 306 | 113 | 416 |1540 | 96 |   0 |   0 | 7.821627e+03 |      --      |    Inf | unknown
  2.3s|     1 |     0 | 18693 |     - |    14M |   0 | 306 | 113 | 432 |1556 | 97 |   0 |   0 | 7.823557e+03 |      --      |    Inf | unknown
  2.3s|     1 |     0 | 18735 |     - |    14M |   0 | 306 | 113 | 448 |1572 | 98 |   0 |   0 | 7.825571e+03 |      --      |    Inf | unknown
  2.3s|     1 |     0 | 18831 |     - |    14M |   0 | 306 | 113 | 466 |1590 | 99 |   0 |   0 | 7.827733e+03 |      --      |    Inf | unknown
  2.3s|     1 |     0 | 18893 |     - |    14M |   0 | 306 | 113 | 403 |1606 |100 |   0 |   0 | 7.828639e+03 |      --      |    Inf | unknown
  2.3s|     1 |     0 | 18944 |     - |    14M |   0 | 306 | 113 | 420 |1623 |101 |   0 |   0 | 7.829555e+03 |      --      |    Inf | unknown
  2.3s|     1 |     0 | 19013 |     - |    14M |   0 | 306 | 113 | 433 |1636 |102 |   0 |   0 | 7.830518e+03 |      --      |    Inf | unknown
  2.3s|     1 |     0 | 19176 |     - |    14M |   0 | 306 | 113 | 445 |1648 |103 |   0 |   0 | 7.835256e+03 |      --      |    Inf | unknown
 time | node  | left  |LP iter|LP it/n|mem/heur|mdpt |vars |cons |rows |cuts |sepa|confs|strbr|  dualbound   | primalbound  |  gap   | compl. 
  2.3s|     1 |     0 | 19265 |     - |    14M |   0 | 306 | 113 | 458 |1661 |104 |   0 |   0 | 7.838749e+03 |      --      |    Inf | unknown
  2.3s|     1 |     0 | 19356 |     - |    14M |   0 | 306 | 113 | 467 |1670 |105 |   0 |   0 | 7.842919e+03 |      --      |    Inf | unknown
  2.3s|     1 |     0 | 19372 |     - |    14M |   0 | 306 | 113 | 390 |1685 |106 |   0 |   0 | 7.843107e+03 |      --      |    Inf | unknown
  2.3s|     1 |     0 | 19382 |     - |    14M |   0 | 306 | 113 | 402 |1697 |107 |   0 |   0 | 7.843117e+03 |      --      |    Inf | unknown
  2.3s|     1 |     0 | 19399 |     - |    14M |   0 | 306 | 113 | 410 |1705 |108 |   0 |   0 | 7.843439e+03 |      --      |    Inf | unknown
  2.3s|     1 |     0 | 19520 |     - |    14M |   0 | 306 | 113 | 418 |1713 |109 |   0 |   0 | 7.848651e+03 |      --      |    Inf | unknown
  2.3s|     1 |     0 | 19638 |     - |    14M |   0 | 306 | 113 | 430 |1725 |110 |   0 |   0 | 7.850931e+03 |      --      |    Inf | unknown
  2.3s|     1 |     0 | 19696 |     - |    14M |   0 | 306 | 113 | 442 |1737 |111 |   0 |   0 | 7.851798e+03 |      --      |    Inf | unknown
  2.4s|     1 |     0 | 19707 |     - |    14M |   0 | 306 | 113 | 360 |1748 |112 |   0 |   0 | 7.851811e+03 |      --      |    Inf | unknown
  2.4s|     1 |     0 | 19769 |     - |    14M |   0 | 306 | 113 | 369 |1757 |113 |   0 |   0 | 7.853182e+03 |      --      |    Inf | unknown
  2.4s|     1 |     0 | 19824 |     - |    14M |   0 | 306 | 113 | 383 |1771 |114 |   0 |   0 | 7.853965e+03 |      --      |    Inf | unknown
  2.4s|     1 |     0 | 19913 |     - |    14M |   0 | 306 | 113 | 393 |1781 |115 |   0 |   0 | 7.854345e+03 |      --      |    Inf | unknown
  2.4s|     1 |     0 | 19997 |     - |    14M |   0 | 306 | 113 | 404 |1792 |116 |   0 |   0 | 7.854471e+03 |      --      |    Inf | unknown
  2.4s|     1 |     0 | 20126 |     - |    14M |   0 | 306 | 113 | 411 |1799 |117 |   0 |   0 | 7.857625e+03 |      --      |    Inf | unknown
  2.4s|     1 |     0 | 20199 |     - |    14M |   0 | 306 | 113 | 348 |1810 |118 |   0 |   0 | 7.860318e+03 |      --      |    Inf | unknown
 time | node  | left  |LP iter|LP it/n|mem/heur|mdpt |vars |cons |rows |cuts |sepa|confs|strbr|  dualbound   | primalbound  |  gap   | compl. 
  2.4s|     1 |     0 | 20229 |     - |    14M |   0 | 306 | 113 | 361 |1823 |119 |   0 |   0 | 7.861502e+03 |      --      |    Inf | unknown
  2.4s|     1 |     0 | 20247 |     - |    14M |   0 | 306 | 113 | 376 |1838 |120 |   0 |   0 | 7.862679e+03 |      --      |    Inf | unknown
  2.4s|     1 |     0 | 20263 |     - |    14M |   0 | 306 | 113 | 389 |1851 |121 |   0 |   0 | 7.862705e+03 |      --      |    Inf | unknown
  2.4s|     1 |     0 | 20280 |     - |    14M |   0 | 306 | 113 | 403 |1865 |122 |   0 |   0 | 7.862950e+03 |      --      |    Inf | unknown
  2.4s|     1 |     0 | 20355 |     - |    14M |   0 | 306 | 113 | 412 |1874 |123 |   0 |   0 | 7.869113e+03 |      --      |    Inf | unknown
  2.4s|     1 |     0 | 20383 |     - |    14M |   0 | 306 | 113 | 364 |1889 |124 |   0 |   0 | 7.869153e+03 |      --      |    Inf | unknown
  2.4s|     1 |     0 | 20394 |     - |    14M |   0 | 306 | 113 | 377 |1902 |125 |   0 |   0 | 7.869206e+03 |      --      |    Inf | unknown
  2.4s|     1 |     0 | 20460 |     - |    14M |   0 | 306 | 113 | 387 |1912 |126 |   0 |   0 | 7.869379e+03 |      --      |    Inf | unknown
  2.4s|     1 |     0 | 20514 |     - |    14M |   0 | 306 | 113 | 396 |1921 |127 |   0 |   0 | 7.869567e+03 |      --      |    Inf | unknown
  2.4s|     1 |     0 | 20664 |     - |    14M |   0 | 306 | 113 | 406 |1931 |128 |   0 |   0 | 7.870525e+03 |      --      |    Inf | unknown
  2.4s|     1 |     0 | 20677 |     - |    14M |   0 | 306 | 113 | 418 |1943 |129 |   0 |   0 | 7.870525e+03 |      --      |    Inf | unknown
  2.4s|     1 |     0 | 20686 |     - |    14M |   0 | 306 | 113 | 349 |1951 |130 |   0 |   0 | 7.870530e+03 |      --      |    Inf | unknown
  2.4s|     1 |     0 | 20718 |     - |    14M |   0 | 306 | 113 | 355 |1957 |131 |   0 |   0 | 7.871218e+03 |      --      |    Inf | unknown
  2.4s|     1 |     0 | 20787 |     - |    14M |   0 | 306 | 113 | 363 |1965 |132 |   0 |   0 | 7.872136e+03 |      --      |    Inf | unknown
  2.4s|     1 |     0 | 20880 |     - |    14M |   0 | 306 | 113 | 377 |1979 |133 |   0 |   0 | 7.873561e+03 |      --      |    Inf | unknown
 time | node  | left  |LP iter|LP it/n|mem/heur|mdpt |vars |cons |rows |cuts |sepa|confs|strbr|  dualbound   | primalbound  |  gap   | compl. 
  2.4s|     1 |     0 | 20972 |     - |    14M |   0 | 306 | 113 | 388 |1990 |134 |   0 |   0 | 7.873797e+03 |      --      |    Inf | unknown
  2.4s|     1 |     0 | 20982 |     - |    14M |   0 | 306 | 113 | 399 |2001 |135 |   0 |   0 | 7.873804e+03 |      --      |    Inf | unknown
  2.4s|     1 |     0 | 21022 |     - |    14M |   0 | 306 | 113 | 339 |2009 |136 |   0 |   0 | 7.873851e+03 |      --      |    Inf | unknown
  2.4s|     1 |     0 | 21062 |     - |    14M |   0 | 306 | 113 | 347 |2017 |137 |   0 |   0 | 7.875599e+03 |      --      |    Inf | unknown
  2.4s|     1 |     0 | 21076 |     - |    14M |   0 | 306 | 113 | 358 |2028 |138 |   0 |   0 | 7.875601e+03 |      --      |    Inf | unknown
  2.4s|     1 |     0 | 21156 |     - |    14M |   0 | 306 | 113 | 369 |2039 |139 |   0 |   0 | 7.875765e+03 |      --      |    Inf | unknown
  2.4s|     1 |     0 | 21244 |     - |    14M |   0 | 306 | 113 | 377 |2047 |140 |   0 |   0 | 7.876691e+03 |      --      |    Inf | unknown
  2.4s|     1 |     0 | 21253 |     - |    14M |   0 | 306 | 113 | 386 |2056 |141 |   0 |   0 | 7.876691e+03 |      --      |    Inf | unknown
  2.4s|     1 |     0 | 21305 |     - |    14M |   0 | 306 | 113 | 343 |2063 |142 |   0 |   0 | 7.876885e+03 |      --      |    Inf | unknown
  2.4s|     1 |     0 | 21332 |     - |    14M |   0 | 306 | 113 | 354 |2074 |143 |   0 |   0 | 7.876900e+03 |      --      |    Inf | unknown
  2.5s|     1 |     0 | 21341 |     - |    14M |   0 | 306 | 113 | 363 |2083 |144 |   0 |   0 | 7.876901e+03 |      --      |    Inf | unknown
  2.5s|     1 |     0 | 21360 |     - |    14M |   0 | 306 | 113 | 369 |2089 |145 |   0 |   0 | 7.876909e+03 |      --      |    Inf | unknown
  2.5s|     1 |     0 | 21545 |     - |    14M |   0 | 306 | 113 | 373 |2093 |146 |   0 |   0 | 7.878361e+03 |      --      |    Inf | unknown
  2.5s|     1 |     0 | 21567 |     - |    14M |   0 | 306 | 113 | 389 |2109 |147 |   0 |   0 | 7.878470e+03 |      --      |    Inf | unknown
  2.5s|     1 |     0 | 21602 |     - |    14M |   0 | 306 | 113 | 341 |2123 |148 |   0 |   0 | 7.878521e+03 |      --      |    Inf | unknown
 time | node  | left  |LP iter|LP it/n|mem/heur|mdpt |vars |cons |rows |cuts |sepa|confs|strbr|  dualbound   | primalbound  |  gap   | compl. 
  2.5s|     1 |     0 | 21628 |     - |    14M |   0 | 306 | 113 | 353 |2135 |149 |   0 |   0 | 7.878556e+03 |      --      |    Inf | unknown
  2.5s|     1 |     0 | 21652 |     - |    14M |   0 | 306 | 113 | 363 |2145 |150 |   0 |   0 | 7.878607e+03 |      --      |    Inf | unknown
  2.5s|     1 |     0 | 21679 |     - |    14M |   0 | 306 | 113 | 373 |2155 |151 |   0 |   0 | 7.878634e+03 |      --      |    Inf | unknown
  2.5s|     1 |     0 | 21698 |     - |    14M |   0 | 306 | 113 | 384 |2166 |152 |   0 |   0 | 7.878649e+03 |      --      |    Inf | unknown
  2.5s|     1 |     0 | 21727 |     - |    14M |   0 | 306 | 113 | 396 |2178 |153 |   0 |   0 | 7.878685e+03 |      --      |    Inf | unknown
  2.5s|     1 |     0 | 21734 |     - |    14M |   0 | 306 | 113 | 338 |2184 |154 |   0 |   0 | 7.878687e+03 |      --      |    Inf | unknown
  2.5s|     1 |     0 | 21749 |     - |    14M |   0 | 306 | 113 | 345 |2191 |155 |   0 |   0 | 7.878691e+03 |      --      |    Inf | unknown
  2.5s|     1 |     0 | 21790 |     - |    14M |   0 | 306 | 113 | 352 |2198 |156 |   0 |   0 | 7.881621e+03 |      --      |    Inf | unknown
  2.5s|     1 |     0 | 21845 |     - |    14M |   0 | 306 | 113 | 356 |2202 |157 |   0 |   0 | 7.882006e+03 |      --      |    Inf | unknown
  2.5s|     1 |     0 | 21855 |     - |    14M |   0 | 306 | 113 | 366 |2212 |158 |   0 |   0 | 7.882006e+03 |      --      |    Inf | unknown
  2.5s|     1 |     0 | 21861 |     - |    14M |   0 | 306 | 113 | 372 |2218 |159 |   0 |   0 | 7.882008e+03 |      --      |    Inf | unknown
  2.5s|     1 |     0 | 21871 |     - |    14M |   0 | 306 | 113 | 307 |2221 |160 |   0 |   0 | 7.882017e+03 |      --      |    Inf | unknown
  2.5s|     1 |     0 | 21882 |     - |    14M |   0 | 306 | 113 | 316 |2230 |161 |   0 |   0 | 7.882034e+03 |      --      |    Inf | unknown
  2.5s|     1 |     0 | 21885 |     - |    14M |   0 | 306 | 113 | 319 |2233 |162 |   0 |   0 | 7.882034e+03 |      --      |    Inf | unknown
  2.5s|     1 |     0 | 21894 |     - |    14M |   0 | 306 | 113 | 320 |2234 |163 |   0 |   0 | 7.882049e+03 |      --      |    Inf | unknown
 time | node  | left  |LP iter|LP it/n|mem/heur|mdpt |vars |cons |rows |cuts |sepa|confs|strbr|  dualbound   | primalbound  |  gap   | compl. 
  2.8s|     1 |     0 | 26017 |     - |    14M |   0 | 306 | 113 | 324 |2238 |164 |   0 |   0 | 7.882051e+03 |      --      |    Inf | unknown
  2.8s|     1 |     0 | 26031 |     - |    14M |   0 | 306 | 113 | 345 |2259 |165 |   0 |   0 | 7.882051e+03 |      --      |    Inf | unknown
  2.8s|     1 |     2 | 26031 |     - |    14M |   0 | 306 | 113 | 345 |2259 |166 |   0 |   0 | 7.882051e+03 |      --      |    Inf | unknown

SCIP Status        : solving was interrupted [node limit reached]
Solving Time (sec) : 2.77
Solving Nodes      : 1
Primal Bound       : +1.00000000000000e+20 (0 solutions)
Dual Bound         : +7.88205063101412e+03
Gap                : infinite


SCIP Status        : solving was interrupted [node limit reached]
Total Time         :       2.78
  solving          :       2.77
  presolving       :       0.02 (included in solving)
  reading          :       0.01
  copying          :       0.01 (1 #copies) (minimal 0.01, maximal 0.01, average 0.01)
Original Problem   :
  Problem name     : powerflow0014r
  Variables        : 119 (0 binary, 0 integer, 119 continuous)
  Implied int vars : 0 (0 binary, 0 integer, 0 continuous)
  Constraints      : 198 initial, 198 maximal
  Objective        : minimize, 6 non-zeros (abs.min = 1, abs.max = 4000)
Presolved Problem  :
  Problem name     : t_powerflow0014r
  Variables        : 306 (0 binary, 0 integer, 306 continuous)
  Implied int vars : 0 (0 binary, 0 integer, 0 continuous)
  Constraints      : 113 initial, 113 maximal
  Objective        : minimize, 6 non-zeros (abs.min = 1, abs.max = 4000)
  Nonzeros         : 491 constraint, 0 clique table
Presolvers         :   ExecTime  SetupTime  Calls  FixedVars   AggrVars   ChgTypes  ChgBounds   AddHoles    DelCons    AddCons   ChgSides   ChgCoefs
  boundshift       :       0.00       0.00      0          0          0          0          0          0          0          0          0          0
  convertinttobin  :       0.00       0.00      0          0          0          0          0          0          0          0          0          0
  domcol           :       0.00       0.00      1          0          0          0          0          0          0          0          0          0
  dualagg          :       0.00       0.00      0          0          0          0          0          0          0          0          0          0
  dualcomp         :       0.00       0.00      1          0          0          0          0          0          0          0          0          0
  dualinfer        :       0.00       0.00      0          0          0          0          0          0          0          0          0          0
  dualsparsify     :       0.00       0.00      1          0          0          0          0          0          0          0          0          0
  gateextraction   :       0.00       0.00      0          0          0          0          0          0          0          0          0          0
  implics          :       0.00       0.00      1          0          0          0          0          0          0          0          0          0
  implint          :       0.00       0.00      0          0          0          0          0          0          0          0          0          0
  inttobinary      :       0.00       0.00      0          0          0          0          0          0          0          0          0          0
  qpkktref         :       0.00       0.00      0          0          0          0          0          0          0          0          0          0
  redvub           :       0.00       0.00      0          0          0          0          0          0          0          0          0          0
  sparsify         :       0.00       0.00      1          0          0          0          0          0          0          0          0          0
  stuffing         :       0.00       0.00      0          0          0          0          0          0          0          0          0          0
  trivial          :       0.00       0.00      3          0          0          0          0          0          0          0          0          0
  tworowbnd        :       0.00       0.00      0          0          0          0          0          0          0          0          0          0
  dualfix          :       0.00       0.00      3          0          0          0          0          0          0          0          0          0
  genvbounds       :       0.00       0.00      0          0          0          0          0          0          0          0          0          0
  probing          :       0.00       0.00      0          0          0          0          0          0          0          0          0          0
  pseudoobj        :       0.00       0.00      0          0          0          0          0          0          0          0          0          0
  symmetry         :       0.00       0.00      1          0          0          0          0          0          0          0          0          0
  vbounds          :       0.00       0.00      0          0          0          0          0          0          0          0          0          0
  linear           :       0.00       0.00      4          1         14          0         54          0         31          0          0          0
  nonlinear        :       0.02       0.01      5          0          0          0        340          0         40          0          0          0
  components       :       0.00       0.00      1          0          0          0          0          0          0          0          0          0
  root node        :          -          -      -          0          -          -        190          -          -          -          -          -
Constraints        :     Number  MaxNumber  #Separate #Propagate    #EnfoLP    #EnfoRelax  #EnfoPS    #Check   #ResProp    Cutoffs    DomReds       Cuts    Applied      Conss   Children
  integral         :          0          0          0          0          0          0          0          9          0          0          0          0          0          0          0
  linear           :         18         18        165        121          0          0          0          9          0          0          0          0          0          0          0
  nonlinear        :         95         95        165        121          2          0          0          1          0         28          0       2830        261          0          2
  fixedvar         :          0          0          0          0          0          0          0          0          0          0          0          0          0          0          0
  countsols        :          0          0          0          0          0          0          0          0          0          0          0          0          0          0          0
  components       :          0          0          0          0          0          0          0          0          0          0          0          0          0          0          0
Constraint Timings :  TotalTime  SetupTime   Separate  Propagate     EnfoLP     EnfoPS     EnfoRelax   Check    ResProp    SB-Prop
  integral         :       0.00       0.00       0.00       0.00       0.00       0.00       0.00       0.00       0.00       0.00
  linear           :       0.00       0.00       0.00       0.00       0.00       0.00       0.00       0.00       0.00       0.00
  nonlinear        :       1.44       0.01       1.39       0.04       0.00       0.00       0.00       0.00       0.00       0.00
  fixedvar         :       0.00       0.00       0.00       0.00       0.00       0.00       0.00       0.00       0.00       0.00
  countsols        :       0.00       0.00       0.00       0.00       0.00       0.00       0.00       0.00       0.00       0.00
  components       :       0.00       0.00       0.00       0.00       0.00       0.00       0.00       0.00       0.00       0.00
Propagators        : #Propagate   #ResProp    Cutoffs    DomReds
  dualfix          :          2          0          0          0
  genvbounds       :        162          0          0          0
  nlobbt           :          0          0          0          0
  obbt             :          6          0          0          1
  probing          :          0          0          0          0
  pseudoobj        :          0          0          0          0
  redcost          :          0          0          0          0
  rootredcost      :          0          0          0          0
  symmetry         :          0          0          0          0
  vbounds          :          0          0          0          0
Propagator Timings :  TotalTime  SetupTime   Presolve  Propagate    ResProp    SB-Prop
  dualfix          :       0.00       0.00       0.00       0.00       0.00       0.00
  genvbounds       :       0.00       0.00       0.00       0.00       0.00       0.00
  nlobbt           :       0.00       0.00       0.00       0.00       0.00       0.00
  obbt             :       0.75       0.00       0.00       0.75       0.00       0.00
  probing          :       0.00       0.00       0.00       0.00       0.00       0.00
  pseudoobj        :       0.00       0.00       0.00       0.00       0.00       0.00
  redcost          :       0.00       0.00       0.00       0.00       0.00       0.00
  rootredcost      :       0.00       0.00       0.00       0.00       0.00       0.00
  symmetry         :       0.00       0.00       0.00       0.00       0.00       0.00
  vbounds          :       0.00       0.00       0.00       0.00       0.00       0.00
Conflict Analysis  :       Time      Calls    Success    DomReds  Conflicts   Literals    Reconvs ReconvLits   Dualrays   Nonzeros   LP Iters   (pool size: [--,--])
  propagation      :       0.00          0          0          -          0        0.0          0        0.0          -          -          -
  infeasible LP    :       0.00          0          0          -          0        0.0          0        0.0          0        0.0          0
  bound exceed. LP :       0.00          0          0          -          0        0.0          0        0.0          0        0.0          0
  strong branching :       0.00          0          0          -          0        0.0          0        0.0          -          -          0
  pseudo solution  :       0.00          0          0          -          0        0.0          0        0.0          -          -          -
  applied globally :       0.00          -          -          0          0        0.0          -          -          0          -          -
  applied locally  :          -          -          -          0          0        0.0          -          -          0          -          -
Gen. Resolution CA :       Time      Calls    Success  Conflicts  LargeCoef  LongConfs    Length
  propagation      :       0.00          0          0          0          0          0       0.0
Separators         :   ExecTime  SetupTime      Calls  RootCalls    Cutoffs    DomReds  FoundCuts ViaPoolAdd  DirectAdd    Applied ViaPoolApp  DirectApp      Conss
  cut pool         :       0.00          -          0          0          -          -          0          0          -          -          -          -          -    (maximal pool size:          0)
  aggregation      :       0.00       0.00          0          0          0          0          0          0          0          0          0          0          0
  > cmir           :          -          -          -          -          -          -          -          0          0          0          0          0          -
  > flowcover      :          -          -          -          -          -          -          -          0          0          0          0          0          -
  > knapsackcover  :          -          -          -          -          -          -          -          0          0          0          0          0          -
  cgmip            :       0.00       0.00          0          0          0          0          0          0          0          0          0          0          0
  clique           :       0.00       0.00          0          0          0          0          0          0          0          0          0          0          0
  closecuts        :       0.00       0.00          0          0          0          0          0          0          0          0          0          0          0
  convexproj       :       0.00       0.00          0          0          0          0          0          0          0          0          0          0          0
  disjunctive      :       0.00       0.00          0          0          0          0          0          0          0          0          0          0          0
  eccuts           :       0.00       0.00          0          0          0          0          0          0          0          0          0          0          0
  flower           :       0.00       0.00        165        165          0          0          0          0          0          0          0          0          0
  gauge            :       0.00       0.00          0          0          0          0          0          0          0          0          0          0          0
  gomory           :       0.00       0.00          0          0          0          0          0          0          0          0          0          0          0
  > gomorymi       :          -          -          -          -          -          -          -          0          0          0          0          0          -
  > strongcg       :          -          -          -          -          -          -          -          0          0          0          0          0          -
  impliedbounds    :       0.00       0.00          0          0          0          0          0          0          0          0          0          0          0
  interminor       :       0.00       0.00          0          0          0          0          0          0          0          0          0          0          0
  intobj           :       0.00       0.00          0          0          0          0          0          0          0          0          0          0          0
  lagromory        :       0.00       0.00          0          0          0          0          0          0          0          0          0          0          0
  mcf              :       0.00       0.00          0          0          0          0          0          0          0          0          0          0          0
  minor            :       0.06       0.00        165        165          0          0       7813          0       7813       1998          0       1998          0
  mixing           :       0.00       0.00        165        165          0          0          0          0          0          0          0          0          0
  oddcycle         :       0.00       0.00          0          0          0          0          0          0          0          0          0          0          0
  rapidlearning    :       0.00       0.00          0          0          0          0          0          0          0          0          0          0          0
  rlt              :       0.00       0.00         10         10          0          0          0          0          0          0          0          0          0
  zerohalf         :       0.00       0.00          0          0          0          0          0          0          0          0          0          0          0
Cutselectors       :   ExecTime  SetupTime      Calls  RootCalls   Selected     Forced   Filtered  RootSelec   RootForc   RootFilt 
  hybrid           :       0.01       0.00        165        165       2366          0       8273       2366          0       8273
  ensemble         :       0.00       0.00          0          0          0          0          0          0          0          0
  dynamic          :       0.00       0.00          0          0          0          0          0          0          0          0
Pricers            :   ExecTime  SetupTime      Calls       Vars
  problem variables:       0.00          -          0          0
Branching Rules    :   ExecTime  SetupTime   BranchLP  BranchExt   BranchPS    Cutoffs    DomReds       Cuts      Conss   Children
  allfullstrong    :       0.00       0.00          0          0          0          0          0          0          0          0
  cloud            :       0.00       0.00          0          0          0          0          0          0          0          0
  distribution     :       0.00       0.00          0          0          0          0          0          0          0          0
  fullstrong       :       0.00       0.00          0          0          0          0          0          0          0          0
  gomory           :       0.00       0.00          0          0          0          0          0          0          0          0
  inference        :       0.00       0.00          0          0          0          0          0          0          0          0
  leastinf         :       0.00       0.00          0          0          0          0          0          0          0          0
  lookahead        :       0.00       0.00          0          0          0          0          0          0          0          0
  mostinf          :       0.00       0.00          0          0          0          0          0          0          0          0
  multaggr         :       0.00       0.00          0          0          0          0          0          0          0          0
  nodereopt        :       0.00       0.00          0          0          0          0          0          0          0          0
  pscost           :       0.00       0.00          0          0          0          0          0          0          0          0
  random           :       0.00       0.00          0          0          0          0          0          0          0          0
  relpscost        :       0.00       0.00          0          0          0          0          0          0          0          0
  vanillafullstrong:       0.00       0.00          0          0          0          0          0          0          0          0
Primal Heuristics  :   ExecTime  SetupTime      Calls      Found       Best
  LP solutions     :       0.00          -          -          0          0
  relax solutions  :       0.00          -          -          0          0
  pseudo solutions :       0.00          -          -          0          0
  strong branching :       0.00          -          -          0          0
  actconsdiving    :       0.00       0.00          0          0          0
  adaptivediving   :       0.00       0.00          0          0          0
  alns             :       0.02       0.00          1          0          0
  bound            :       0.00       0.00          0          0          0
  clique           :       0.00       0.00          0          0          0
  coefdiving       :       0.00       0.00          0          0          0
  completesol      :       0.00       0.00          0          0          0
  conflictdiving   :       0.00       0.00          0          0          0
  crossover        :       0.00       0.00          0          0          0
  dins             :       0.00       0.00          0          0          0
  distributiondivin:       0.00       0.00          0          0          0
  dks              :       0.00       0.00          0          0          0
  dps              :       0.00       0.00          0          0          0
  dualval          :       0.00       0.00          0          0          0
  farkasdiving     :       0.00       0.00          0          0          0
  feaspump         :       0.00       0.00          0          0          0
  fixandinfer      :       0.00       0.00          0          0          0
  fracdiving       :       0.00       0.00          0          0          0
  gins             :       0.00       0.00          0          0          0
  guideddiving     :       0.00       0.00          0          0          0
  indicator        :       0.00       0.00          0          0          0
  indicatordiving  :       0.00       0.00          0          0          0
  intdiving        :       0.00       0.00          0          0          0
  intshifting      :       0.00       0.00          0          0          0
  linesearchdiving :       0.00       0.00          0          0          0
  localbranching   :       0.00       0.00          0          0          0
  locks            :       0.00       0.00          0          0          0
  lpface           :       0.00       0.00          0          0          0
  mpec             :       0.00       0.00          0          0          0
  multistart       :       0.00       0.00          0          0          0
  mutation         :       0.00       0.00          0          0          0
  nlpdiving        :       0.00       0.00          0          0          0
  objpscostdiving  :       0.00       0.00          0          0          0
  octane           :       0.00       0.00          0          0          0
  ofins            :       0.00       0.00          0          0          0
  oneopt           :       0.00       0.00          0          0          0
  padm             :       0.00       0.00          0          0          0
  proximity        :       0.00       0.00          0          0          0
  pscostdiving     :       0.00       0.00          0          0          0
  randrounding     :       0.00       0.00          0          0          0
  rens             :       0.00       0.00          0          0          0
  reoptsols        :       0.00       0.00          0          0          0
  repair           :       0.00       0.00          0          0          0
  rins             :       0.00       0.00          0          0          0
  rootsoldiving    :       0.00       0.00          0          0          0
  rounding         :       0.00       0.00          0          0          0
  scheduler        :       0.00       0.00          0          0          0
  shiftandpropagate:       0.00       0.00          0          0          0
  shifting         :       0.00       0.00          0          0          0
  simplerounding   :       0.00       0.00          0          0          0
  subnlp           :       0.00       0.00          0          0          0
  trivial          :       0.00       0.00          2          0          0
  trivialnegation  :       0.00       0.00          0          0          0
  trustregion      :       0.00       0.00          0          0          0
  trysol           :       0.00       0.00          0          0          0
  twoopt           :       0.00       0.00          0          0          0
  undercover       :       0.04       0.00          1          0          0
  vbounds          :       0.00       0.00          0          0          0
  veclendiving     :       0.00       0.00          0          0          0
  zeroobj          :       0.00       0.00          0          0          0
  zirounding       :       0.00       0.00          0          0          0
  other solutions  :          -          -          -          0          -
LNS (Scheduler)    :      Calls  SetupTime  SolveTime SolveNodes       Sols       Best       Exp3    Exp3-IX  EpsGreedy        UCB TgtFixRate  Opt  Inf Node Stal  Sol  Usr Othr Actv
  zeroobjective    :          0       0.00       0.00          0          0          0    0.00000    1.00000   -1.00000    1.00000      0.900    0    0    0    0    0    0    0    1
  rens             :          0       0.00       0.00          0          0          0    0.00000    0.00000   -1.00000    1.00000      0.900    0    0    0    0    0    0    0    0
  rins             :          0       0.00       0.00          0          0          0    0.00000    0.00000   -1.00000    1.00000      0.900    0    0    0    0    0    0    0    0
  mutation         :          0       0.00       0.00          0          0          0    0.00000    0.00000   -1.00000    1.00000      0.900    0    0    0    0    0    0    0    0
  localbranching   :          0       0.00       0.00          0          0          0    0.00000    0.00000   -1.00000    1.00000      0.900    0    0    0    0    0    0    0    0
  crossover        :          0       0.00       0.00          0          0          0    0.00000    0.00000   -1.00000    1.00000      0.900    0    0    0    0    0    0    0    0
  proximity        :          0       0.00       0.00          0          0          0    0.00000    0.00000   -1.00000    1.00000      0.900    0    0    0    0    0    0    0    0
  dins             :          0       0.00       0.00          0          0          0    0.00000    0.00000   -1.00000    1.00000      0.900    0    0    0    0    0    0    0    0
  trustregion      :          0       0.00       0.00          0          0          0    0.00000    0.00000   -1.00000    1.00000      0.900    0    0    0    0    0    0    0    0
Expressions        :   #IntEval  IntEvalTi   #RevProp  RevPropTi    DomReds    Cutoffs  #Estimate  EstimTime  Branching  #Simplify SimplifyTi Simplified
  pow              :       4150       0.00        550       0.01        298          0      25284       0.01         54        656       0.00         14
  prod             :       1380       0.00         88       0.00         19          0      43056       0.03        152        816       0.00         24
  sum              :       2288       0.00       1481       0.00        417          0         97       0.00          0        402       0.00        119
  val              :          0       0.00          0       0.00          0          0          0       0.00          0          0       0.00          0
  var              :       6728       0.00          0       0.00          0          0          0       0.00          0       2426       0.00         42
Nlhdlrs            :    Detects  DetectAll DetectTime   #IntEval  IntEvalTi   #RevProp  RevPropTi    DomReds    Cutoffs   #Enforce   EnfoTime       Cuts  Branching
  soc              :          0          0       0.00          0       0.00          0       0.00          0          0          0       0.00          0          0
  convex           :          0          0       0.00          0       0.00          0       0.00          0          0          0       0.00          0          0
  concave          :          0          0       0.00          0       0.00          0       0.00          0          0          0       0.00          0          0
  signomial        :          0          0       0.00          0       0.00          0       0.00          0          0          0       0.00          0          0
  quotient         :          0          0       0.00          0       0.00          0       0.00          0          0          0       0.00          0          0
  quadratic        :         93        447       0.00       5527       0.00       5126       0.01       2066         19      15487       1.29       1836          0
  default          :        333       1366       0.00       7009       0.01       2431       0.01        734          1      68334       0.07        994          0
  bilinear         :         76         76       0.00        804       0.00         68       0.00          0          0      42578       0.00          0          0
  perspective      :          0          0       0.00          0       0.00          0       0.00          0          0          0       0.00          0          0
Quadratic Nlhdlr   :    GenCuts    AddCuts  CouldImpr   NLargeRE AbrtBadRay AbrtPosPhi AbrtNonBas  NStrength  NMonoidal AveCutcoef    AveMonoidalImprov AveDensity AveEfficacy AveBCutsFrac 
  Quadratic Nlhdlr :       1860       1836          0         24         23          0          0          0          0    1.01059                   -1   0.467199  0.0845674          0
Quadratic SetSel   :       Rule      Calls    Changed   Fallback      Evals    AveGain IntercutTime   SelectTime    Applied     Active   RootAppl
  Quadratic SetSel :          1       1609       1488         10      37724    1.16038       1.1400       0.7700          9          0          9
LP                 :       Time      Calls Iterations  Iter/call   Iter/sec  Time-0-It Calls-0-It
  primal LP        :       0.01         27        392     392.00   39200.00       0.00         26
  dual LP          :       0.44        166      12008      72.34   27290.91       0.00          0
  lex dual LP      :       0.00          0          0       0.00          -
  barrier LP       :       0.00          0          0       0.00          -       0.00          0
  resolve instable :       0.00          0          0       0.00          -
  diving/probing LP:       0.71        251      13631      54.31   19198.59
  strong branching :       0.00          0          0       0.00          -          -          -          0
    (at root node) :          -          0          0       0.00          -
  conflict analysis:       0.00          0          0       0.00          -
NLP relaxation     :
  solve time       :       0.00 (0 calls)
  convexity        :  nonconvex (18 linear rows, 1 convex ineq., 0 nonconvex ineq., 94 nonlinear eq. or two-sided ineq.)
Relaxators         :       Time      Calls    Cutoffs ImprBounds   ImprTime ReducedDom  Separated AddedConss
  benders          :       0.00          0          0          0       0.00          0          0          0
B&B Tree           :
  number of runs   :          1
  nodes            :          1 (1 internal, 0 leaves)
  feasible leaves  :          0
  infeas. leaves   :          0
  objective leaves :          0
  nodes (total)    :          1 (1 internal, 0 leaves)
  nodes left       :          2
  max depth        :          0
  max depth (total):          0
  backtracks       :          0 (0.0%)
  early backtracks :          0 (0.0%)
  nodes exc. ref.  :          0 (0.0%)
  delayed cutoffs  :          0
  repropagations   :          0 (0 domain reductions, 0 cutoffs)
  avg switch length:       1.00
  switching time   :       0.00
Root Node          :
  First LP value   : -1.00000000000000e-09
  First LP Iters   :        226
  First LP Time    :       0.00
  Final Dual Bound : +7.88205063101412e+03
  Final Root Iters :      12404
  Root LP Estimate : +7.88205063101412e+03
Solution           :
  Solutions found  :          0 (0 improvements)
  Primal Bound     :          -
  Dual Bound       : +7.88205063101412e+03
  Gap              :   infinite
Integrals          :      Total       Avg%
  primal-dual      :     277.00     100.00
  primal-ref       :          -          - (not evaluated)
  dual-ref         :          -          - (not evaluated)



@@ wallclock 3.08 returncode 0
